FeederIQ/older versions/feederiq_hackathon_vk/ai_synthetic_data/IEEE123Pv.dss
New Tshape.constant_temperature npts=35040 interval=0.25 temp=(file=./profiles/pv_profiles/temperature.csv)
New PVSystem.7 phases=3 bus1=7 kV=4.16 4017771198288433 kVA=50 irrad=1.0 Pmpp=50 PF=1 yearly=pvshape_7 TYearly=constant_temperature
New PVSystem.29 phases=3 bus1=29 kV=4.16 kVA=50 irrad=1.0 Pmpp=50 PF=1 yearly=pvshape_29 TYearly=constant_temperature
New PVSystem.49 phases=3 bus1=49 kV=4.16 kVA=50 irrad=1.0 Pmpp=50 PF=1 yearly=pvshape_49 TYearly=constant_temperature
New PVSystem.55 phases=3 bus1=55 kV=4.16 kVA=50 irrad=1.0 Pmpp=50 PF=1 yearly=pvshape_55 TYearly=constant_temperature
New PVSystem.63 phases=3 bus1=63 kV=4.16 kVA=50 irrad=1.0 Pmpp=50 PF=1 yearly=pvshape_63 TYearly=constant_temperature
New PVSystem.68 phases=1 bus1=68.1 kV=2.4017771198288433 kVA=50 irrad=1.0 Pmpp=50 PF=1 yearly=pvshape_68 TYearly=constant_temperature
New PVSystem.80 phases=3 bus1=80 kV=4.16 kVA=50 irrad=1.0 Pmpp=50 PF=1 yearly=pvshape_80 TYearly=constant_temperature
New PVSystem.87 phases=3 bus1=87 kV=4.16 kVA=50 irrad=1.0 Pmpp=50 PF=1 yearly=pvshape_87 TYearly=constant_temperature
New PVSystem.113 phases=1 bus1=113.1 kV=2.4017771198288433 kVA=50 irrad=1.0 Pmpp=50 PF=1 yearly=pvshape_113 TYearly=constant_temperature
